contingency/no_load/100pc/TNB_DUMA_VLN.Txt

SYMMETRICAL COMPONENT VOLTAGES BY BUS (for 3-phase buses)

Bus               Mag:   V1 (kV)    p.u.     V2 (kV)   %V2/V1    V0 (kV)    %V0/V1

ppu_duma_33kv        18.19     0.9546  8.888E-009  4.887E-008 1.239E-009 6.814E-009
ppu_duma_11kv        4.632     0.7294  2.399E-009  5.18E-008 5.527E-011 1.193E-009
rpplngi2             4.786     0.7536  2.479E-009  5.18E-008 5.661E-011 1.183E-009
pdtjlnmasjid         4.905     0.7724  2.541E-009  5.18E-008 5.762E-011 1.175E-009
bella                4.986     0.7851  2.582E-009  5.18E-008 5.829E-011 1.169E-009
pstpdgn              5.027     0.7915  2.604E-009  5.18E-008 5.863E-011 1.166E-009
pamdra               4.648     0.7318  2.407E-009  5.18E-008 5.543E-011 1.193E-009
duma4                  4.7     0.7401  2.434E-009  5.18E-008 6.282E-011 1.337E-009
plsdra               4.818     0.7586  2.495E-009  5.18E-008 7.692E-011 1.597E-009
ssu_uptwres_ir1      4.838     0.7617  2.506E-009  5.18E-008 7.715E-011 1.595E-009
atria_1              4.839     0.7619  2.506E-009  5.18E-008 5.706E-011 1.179E-009
hawker               4.874     0.7674  2.524E-009  5.18E-008 5.78E-011 1.186E-009
prmte                 4.77     0.7511  2.471E-009  5.18E-008 7.292E-011 1.529E-009
prmta                4.793     0.7548  2.483E-009  5.18E-008 7.318E-011 1.527E-009
pmontb               4.812     0.7577  2.492E-009  5.18E-008 7.536E-011 1.566E-009
duma7                4.692     0.7389  2.43E-009  5.18E-008 5.375E-011 1.145E-009
haus                 4.819     0.7588  2.496E-009  5.18E-008 1.998E-010 4.147E-009
duma6                5.178     0.8153  2.682E-009  5.18E-008 9.239E-010 1.784E-008
duma13               5.515     0.8683  2.856E-009  5.18E-008 1.707E-009 3.095E-008
ssu_duma5_im2         5.56     0.8755  2.88E-009  5.18E-008 1.717E-009 3.088E-008
plngi_b              4.709     0.7414  2.439E-009  5.18E-008 5.592E-011 1.188E-009
plngi_d              4.747     0.7475  2.459E-009  5.18E-008 5.625E-011 1.185E-009
pdtlitrak             5.03      0.792  2.605E-009  5.18E-008 5.972E-011 1.187E-009
duma12                 5.2     0.8189  2.694E-009  5.18E-008 6.16E-011 1.185E-009
tmngh4               5.366     0.8449  2.779E-009  5.18E-008 8.167E-011 1.522E-009
ssu_tmegah3_ir1      5.432     0.8554  2.814E-009  5.18E-008    9E-011 1.657E-009
tmngh2               5.461     0.8599  2.829E-009  5.18E-008 9.368E-011 1.715E-009
sprk9                4.987     0.7853  2.583E-009  5.179E-008 5.847E-011 1.172E-009
bomba                5.008     0.7885  2.594E-009  5.179E-008 6.039E-011 1.206E-009
sprk8                5.059     0.7966  2.62E-009  5.179E-008 6.538E-011 1.292E-009
ssu_uptwres_im2      4.689     0.7384  2.429E-009  5.18E-008 6.15E-011 1.312E-009
maybank              4.767     0.7505  2.469E-009  5.18E-008 6.224E-011 1.306E-009
duma8                4.781     0.7528  2.476E-009  5.18E-008 6.37E-011 1.332E-009
ssu_dsarcntr_ir1      4.67     0.7354  2.419E-009  5.18E-008 5.559E-011 1.19E-009
duma9                4.901     0.7717  2.538E-009  5.18E-008 5.76E-011 1.175E-009
duma1                5.014     0.7896  2.597E-009  5.18E-008 5.855E-011 1.168E-009
elite                5.056      0.796  2.619E-009  5.18E-008 5.89E-011 1.165E-009
duma10               4.818     0.7586  2.495E-009  5.18E-008 5.685E-011 1.18E-009
balaipolis            4.82     0.7589  2.496E-009  5.18E-008 5.686E-011 1.18E-009
ppu_duma_vcb1            0          0          0          0         0         0
